8

 C    0.811922437365   -0.539446332793    0.494051945278
 C    2.157952563399   -0.050453664986   -0.012851942994
 H   -0.016930385821   -0.008475054412    0.008698126442
 H    0.674537924135   -1.610734712065    0.299223300441
 H    0.710837092315   -0.386874626865    1.576176150362
 H    2.986805259849   -0.581429184028    0.472497452143
 H    2.295339596714    1.020833401746    0.181982125968
 H    2.259035512044   -0.203019826598   -1.094977157642
